
---------- Begin Simulation Statistics ----------
sim_seconds                                  0.013234                       # Number of seconds simulated
sim_ticks                                 13234042500                       # Number of ticks simulated
final_tick                                13234042500                       # Number of ticks from beginning of simulation (restored from checkpoints and never reset)
sim_freq                                 1000000000000                       # Frequency of simulated ticks
host_inst_rate                                1616721                       # Simulator instruction rate (inst/s)
host_op_rate                                  2200874                       # Simulator op (including micro ops) rate (op/s)
host_tick_rate                              552408804                       # Simulator tick rate (ticks/s)
host_mem_usage                                8522796                       # Number of bytes of host memory used
host_seconds                                    23.96                       # Real time elapsed on the host
sim_insts                                    38731704                       # Number of instructions simulated
sim_ops                                      52726248                       # Number of ops (including micro ops) simulated
system.mem_ctrls.bytes_read::cpu0.inst       77908172                       # Number of bytes read from this memory
system.mem_ctrls.bytes_read::cpu0.data       12637389                       # Number of bytes read from this memory
system.mem_ctrls.bytes_read::cpu1.inst       77994300                       # Number of bytes read from this memory
system.mem_ctrls.bytes_read::cpu1.data       17189661                       # Number of bytes read from this memory
system.mem_ctrls.bytes_read::total          185729522                       # Number of bytes read from this memory
system.mem_ctrls.bytes_inst_read::cpu0.inst     77908172                       # Number of instructions bytes read from this memory
system.mem_ctrls.bytes_inst_read::cpu1.inst     77994300                       # Number of instructions bytes read from this memory
system.mem_ctrls.bytes_inst_read::total     155902472                       # Number of instructions bytes read from this memory
system.mem_ctrls.bytes_written::cpu0.data     10518828                       # Number of bytes written to this memory
system.mem_ctrls.bytes_written::cpu1.data     13371040                       # Number of bytes written to this memory
system.mem_ctrls.bytes_written::total        23889868                       # Number of bytes written to this memory
system.mem_ctrls.num_reads::cpu0.inst        19477043                       # Number of read requests responded to by this memory
system.mem_ctrls.num_reads::cpu0.data         4529736                       # Number of read requests responded to by this memory
system.mem_ctrls.num_reads::cpu1.inst        19420275                       # Number of read requests responded to by this memory
system.mem_ctrls.num_reads::cpu1.data         4297416                       # Number of read requests responded to by this memory
system.mem_ctrls.num_reads::total            47724470                       # Number of read requests responded to by this memory
system.mem_ctrls.num_writes::cpu0.data        2637186                       # Number of write requests responded to by this memory
system.mem_ctrls.num_writes::cpu1.data        3342760                       # Number of write requests responded to by this memory
system.mem_ctrls.num_writes::total            5979946                       # Number of write requests responded to by this memory
system.mem_ctrls.bw_read::cpu0.inst        5886951927                       # Total read bandwidth from this memory (bytes/s)
system.mem_ctrls.bw_read::cpu0.data         954915250                       # Total read bandwidth from this memory (bytes/s)
system.mem_ctrls.bw_read::cpu1.inst        5893459992                       # Total read bandwidth from this memory (bytes/s)
system.mem_ctrls.bw_read::cpu1.data        1298897219                       # Total read bandwidth from this memory (bytes/s)
system.mem_ctrls.bw_read::total           14034224388                       # Total read bandwidth from this memory (bytes/s)
system.mem_ctrls.bw_inst_read::cpu0.inst   5886951927                       # Instruction read bandwidth from this memory (bytes/s)
system.mem_ctrls.bw_inst_read::cpu1.inst   5893459992                       # Instruction read bandwidth from this memory (bytes/s)
system.mem_ctrls.bw_inst_read::total      11780411919                       # Instruction read bandwidth from this memory (bytes/s)
system.mem_ctrls.bw_write::cpu0.data        794831058                       # Write bandwidth from this memory (bytes/s)
system.mem_ctrls.bw_write::cpu1.data       1010351901                       # Write bandwidth from this memory (bytes/s)
system.mem_ctrls.bw_write::total           1805182959                       # Write bandwidth from this memory (bytes/s)
system.mem_ctrls.bw_total::cpu0.inst       5886951927                       # Total bandwidth to/from this memory (bytes/s)
system.mem_ctrls.bw_total::cpu0.data       1749746308                       # Total bandwidth to/from this memory (bytes/s)
system.mem_ctrls.bw_total::cpu1.inst       5893459992                       # Total bandwidth to/from this memory (bytes/s)
system.mem_ctrls.bw_total::cpu1.data       2309249120                       # Total bandwidth to/from this memory (bytes/s)
system.mem_ctrls.bw_total::total          15839407347                       # Total bandwidth to/from this memory (bytes/s)
system.membus.throughput                  15839420343                       # Throughput (bytes/s)
system.membus.data_through_bus              209619562                       # Total data (bytes)
system.membus.snoop_data_through_bus                0                       # Total snoop data (bytes)
system.cpu0.dtb.inst_hits                           0                       # ITB inst hits
system.cpu0.dtb.inst_misses                         0                       # ITB inst misses
system.cpu0.dtb.read_hits                           0                       # DTB read hits
system.cpu0.dtb.read_misses                         0                       # DTB read misses
system.cpu0.dtb.write_hits                          0                       # DTB write hits
system.cpu0.dtb.write_misses                        0                       # DTB write misses
system.cpu0.dtb.flush_tlb                           0                       # Number of times complete TLB was flushed
system.cpu0.dtb.flush_tlb_mva                       0                       # Number of times TLB was flushed by MVA
system.cpu0.dtb.flush_tlb_mva_asid                  0                       # Number of times TLB was flushed by MVA & ASID
system.cpu0.dtb.flush_tlb_asid                      0                       # Number of times TLB was flushed by ASID
system.cpu0.dtb.flush_entries                       0                       # Number of entries that have been flushed from TLB
system.cpu0.dtb.align_faults                        0                       # Number of TLB faults due to alignment restrictions
system.cpu0.dtb.prefetch_faults                     0                       # Number of TLB faults due to prefetch
system.cpu0.dtb.domain_faults                       0                       # Number of TLB faults due to domain restrictions
system.cpu0.dtb.perms_faults                        0                       # Number of TLB faults due to permissions restrictions
system.cpu0.dtb.read_accesses                       0                       # DTB read accesses
system.cpu0.dtb.write_accesses                      0                       # DTB write accesses
system.cpu0.dtb.inst_accesses                       0                       # ITB inst accesses
system.cpu0.dtb.hits                                0                       # DTB hits
system.cpu0.dtb.misses                              0                       # DTB misses
system.cpu0.dtb.accesses                            0                       # DTB accesses
system.cpu0.itb.inst_hits                           0                       # ITB inst hits
system.cpu0.itb.inst_misses                         0                       # ITB inst misses
system.cpu0.itb.read_hits                           0                       # DTB read hits
system.cpu0.itb.read_misses                         0                       # DTB read misses
system.cpu0.itb.write_hits                          0                       # DTB write hits
system.cpu0.itb.write_misses                        0                       # DTB write misses
system.cpu0.itb.flush_tlb                           0                       # Number of times complete TLB was flushed
system.cpu0.itb.flush_tlb_mva                       0                       # Number of times TLB was flushed by MVA
system.cpu0.itb.flush_tlb_mva_asid                  0                       # Number of times TLB was flushed by MVA & ASID
system.cpu0.itb.flush_tlb_asid                      0                       # Number of times TLB was flushed by ASID
system.cpu0.itb.flush_entries                       0                       # Number of entries that have been flushed from TLB
system.cpu0.itb.align_faults                        0                       # Number of TLB faults due to alignment restrictions
system.cpu0.itb.prefetch_faults                     0                       # Number of TLB faults due to prefetch
system.cpu0.itb.domain_faults                       0                       # Number of TLB faults due to domain restrictions
system.cpu0.itb.perms_faults                        0                       # Number of TLB faults due to permissions restrictions
system.cpu0.itb.read_accesses                       0                       # DTB read accesses
system.cpu0.itb.write_accesses                      0                       # DTB write accesses
system.cpu0.itb.inst_accesses                       0                       # ITB inst accesses
system.cpu0.itb.hits                                0                       # DTB hits
system.cpu0.itb.misses                              0                       # DTB misses
system.cpu0.itb.accesses                            0                       # DTB accesses
system.cpu0.workload.num_syscalls              160393                       # Number of system calls
system.cpu0.numCycles                        26468086                       # number of cpu cycles simulated
system.cpu0.numWorkItemsStarted                     0                       # number of work items this cpu started
system.cpu0.numWorkItemsCompleted                   0                       # number of work items this cpu completed
system.cpu0.committedInsts                   19475902                       # Number of instructions committed
system.cpu0.committedOps                     26466945                       # Number of ops (including micro ops) committed
system.cpu0.num_int_alu_accesses             23582088                       # Number of integer alu accesses
system.cpu0.num_fp_alu_accesses                376555                       # Number of float alu accesses
system.cpu0.num_func_calls                    1269579                       # number of times a function call or return occured
system.cpu0.num_conditional_control_insts      3116714                       # number of instructions that are conditional controls
system.cpu0.num_int_insts                    23582088                       # number of integer instructions
system.cpu0.num_fp_insts                       376555                       # number of float instructions
system.cpu0.num_int_register_reads          117741943                       # number of times the integer registers were read
system.cpu0.num_int_register_writes          25603731                       # number of times the integer registers were written
system.cpu0.num_fp_register_reads             2702405                       # number of times the floating registers were read
system.cpu0.num_fp_register_writes            1502274                       # number of times the floating registers were written
system.cpu0.num_mem_refs                      7219226                       # number of memory refs
system.cpu0.num_load_insts                    4568273                       # Number of load instructions
system.cpu0.num_store_insts                   2650953                       # Number of store instructions
system.cpu0.num_idle_cycles                         0                       # Number of idle cycles
system.cpu0.num_busy_cycles                  26468086                       # Number of busy cycles
system.cpu0.not_idle_fraction                       1                       # Percentage of non-idle cycles
system.cpu0.idle_fraction                           0                       # Percentage of idle cycles
system.cpu1.dtb.inst_hits                           0                       # ITB inst hits
system.cpu1.dtb.inst_misses                         0                       # ITB inst misses
system.cpu1.dtb.read_hits                           0                       # DTB read hits
system.cpu1.dtb.read_misses                         0                       # DTB read misses
system.cpu1.dtb.write_hits                          0                       # DTB write hits
system.cpu1.dtb.write_misses                        0                       # DTB write misses
system.cpu1.dtb.flush_tlb                           0                       # Number of times complete TLB was flushed
system.cpu1.dtb.flush_tlb_mva                       0                       # Number of times TLB was flushed by MVA
system.cpu1.dtb.flush_tlb_mva_asid                  0                       # Number of times TLB was flushed by MVA & ASID
system.cpu1.dtb.flush_tlb_asid                      0                       # Number of times TLB was flushed by ASID
system.cpu1.dtb.flush_entries                       0                       # Number of entries that have been flushed from TLB
system.cpu1.dtb.align_faults                        0                       # Number of TLB faults due to alignment restrictions
system.cpu1.dtb.prefetch_faults                     0                       # Number of TLB faults due to prefetch
system.cpu1.dtb.domain_faults                       0                       # Number of TLB faults due to domain restrictions
system.cpu1.dtb.perms_faults                        0                       # Number of TLB faults due to permissions restrictions
system.cpu1.dtb.read_accesses                       0                       # DTB read accesses
system.cpu1.dtb.write_accesses                      0                       # DTB write accesses
system.cpu1.dtb.inst_accesses                       0                       # ITB inst accesses
system.cpu1.dtb.hits                                0                       # DTB hits
system.cpu1.dtb.misses                              0                       # DTB misses
system.cpu1.dtb.accesses                            0                       # DTB accesses
system.cpu1.itb.inst_hits                           0                       # ITB inst hits
system.cpu1.itb.inst_misses                         0                       # ITB inst misses
system.cpu1.itb.read_hits                           0                       # DTB read hits
system.cpu1.itb.read_misses                         0                       # DTB read misses
system.cpu1.itb.write_hits                          0                       # DTB write hits
system.cpu1.itb.write_misses                        0                       # DTB write misses
system.cpu1.itb.flush_tlb                           0                       # Number of times complete TLB was flushed
system.cpu1.itb.flush_tlb_mva                       0                       # Number of times TLB was flushed by MVA
system.cpu1.itb.flush_tlb_mva_asid                  0                       # Number of times TLB was flushed by MVA & ASID
system.cpu1.itb.flush_tlb_asid                      0                       # Number of times TLB was flushed by ASID
system.cpu1.itb.flush_entries                       0                       # Number of entries that have been flushed from TLB
system.cpu1.itb.align_faults                        0                       # Number of TLB faults due to alignment restrictions
system.cpu1.itb.prefetch_faults                     0                       # Number of TLB faults due to prefetch
system.cpu1.itb.domain_faults                       0                       # Number of TLB faults due to domain restrictions
system.cpu1.itb.perms_faults                        0                       # Number of TLB faults due to permissions restrictions
system.cpu1.itb.read_accesses                       0                       # DTB read accesses
system.cpu1.itb.write_accesses                      0                       # DTB write accesses
system.cpu1.itb.inst_accesses                       0                       # ITB inst accesses
system.cpu1.itb.hits                                0                       # DTB hits
system.cpu1.itb.misses                              0                       # DTB misses
system.cpu1.itb.accesses                            0                       # DTB accesses
system.cpu1.numCycles                        26473189                       # number of cpu cycles simulated
system.cpu1.numWorkItemsStarted                     0                       # number of work items this cpu started
system.cpu1.numWorkItemsCompleted                   0                       # number of work items this cpu completed
system.cpu1.committedInsts                   19255802                       # Number of instructions committed
system.cpu1.committedOps                     26259303                       # Number of ops (including micro ops) committed
system.cpu1.num_int_alu_accesses             24032146                       # Number of integer alu accesses
system.cpu1.num_fp_alu_accesses                    16                       # Number of float alu accesses
system.cpu1.num_func_calls                    2387578                       # number of times a function call or return occured
system.cpu1.num_conditional_control_insts      2545771                       # number of instructions that are conditional controls
system.cpu1.num_int_insts                    24032146                       # number of integer instructions
system.cpu1.num_fp_insts                           16                       # number of float instructions
system.cpu1.num_int_register_reads          113792665                       # number of times the integer registers were read
system.cpu1.num_int_register_writes          24506784                       # number of times the integer registers were written
system.cpu1.num_fp_register_reads                  16                       # number of times the floating registers were read
system.cpu1.num_fp_register_writes                  0                       # number of times the floating registers were written
system.cpu1.num_mem_refs                      7639947                       # number of memory refs
system.cpu1.num_load_insts                    4297300                       # Number of load instructions
system.cpu1.num_store_insts                   3342647                       # Number of store instructions
system.cpu1.num_idle_cycles              44318.544560                       # Number of idle cycles
system.cpu1.num_busy_cycles              26428870.455440                       # Number of busy cycles
system.cpu1.not_idle_fraction                0.998326                       # Percentage of non-idle cycles
system.cpu1.idle_fraction                    0.001674                       # Percentage of idle cycles

---------- End Simulation Statistics   ----------
